version 2
1
9
.tran 0.1 1{return}{return}{return}.kicad adjustpaths{return}.save all{return}.probe alli
0
